Version 4
SHEET 1 880 680
WIRE 704 -448 368 -448
WIRE -352 -416 -512 -416
WIRE 368 -416 368 -448
WIRE 368 -416 -192 -416
WIRE -112 -368 -192 -368
WIRE 480 -368 288 -368
WIRE 544 -368 480 -368
WIRE 480 -352 480 -368
WIRE 704 -352 704 -368
WIRE -352 -336 -352 -368
WIRE -352 -336 -512 -336
WIRE 368 -288 368 -416
WIRE 288 -272 288 -368
WIRE 336 -272 288 -272
WIRE -512 -256 -512 -336
WIRE 480 -256 480 -288
WIRE 480 -256 400 -256
WIRE 544 -256 544 -288
WIRE 544 -256 480 -256
WIRE 592 -256 544 -256
WIRE 736 -256 672 -256
WIRE 800 -256 736 -256
WIRE -112 -240 -112 -368
WIRE -112 -240 -192 -240
WIRE -80 -240 -112 -240
WIRE 32 -240 0 -240
WIRE 192 -240 32 -240
WIRE 336 -240 192 -240
WIRE -256 -208 -256 -240
WIRE 192 -208 192 -240
WIRE 288 -208 288 -272
WIRE 32 -192 32 -240
WIRE 736 -176 736 -256
WIRE -256 -96 -256 -128
WIRE 32 -96 32 -128
WIRE 32 -96 -256 -96
WIRE 192 -96 192 -128
WIRE 192 -96 32 -96
WIRE 288 -96 288 -128
WIRE 288 -96 192 -96
WIRE 368 -96 368 -224
WIRE 368 -96 288 -96
WIRE 736 -96 736 -112
WIRE 32 -32 32 -96
FLAG 704 -352 0
FLAG 736 -96 0
FLAG 800 -256 ADC
FLAG -512 -256 0
FLAG 32 -32 0
SYMBOL res 208 -112 R180
WINDOW 0 36 76 Left 2
WINDOW 3 36 40 Left 2
SYMATTR InstName R1
SYMATTR Value 100k
SYMBOL res 304 -112 R180
WINDOW 0 36 76 Left 2
WINDOW 3 36 40 Left 2
SYMATTR InstName R2
SYMATTR Value 1k
SYMBOL cap 16 -192 R0
SYMATTR InstName C1
SYMATTR Value 100n
SYMBOL res 16 -256 R90
WINDOW 0 0 56 VBottom 2
WINDOW 3 32 56 VTop 2
SYMATTR InstName R3
SYMATTR Value 10k
SYMBOL OpAmps\\LTC1050 368 -320 R0
SYMATTR InstName U1
SYMBOL voltage 704 -464 R0
WINDOW 123 0 0 Left 0
WINDOW 39 0 0 Left 0
SYMATTR InstName V2
SYMATTR Value 5
SYMBOL res 528 -384 R0
SYMATTR InstName R4
SYMATTR Value 100k
SYMBOL res 688 -272 R90
WINDOW 0 0 56 VBottom 2
WINDOW 3 32 56 VTop 2
SYMATTR InstName R5
SYMATTR Value 1k
SYMBOL cap 720 -176 R0
SYMATTR InstName C3
SYMATTR Value 100n
SYMBOL cap 464 -352 R0
SYMATTR InstName C2
SYMATTR Value {C2}
SYMBOL cap -192 -256 R90
WINDOW 0 0 32 VBottom 2
WINDOW 3 32 32 VTop 2
SYMATTR InstName C4
SYMATTR Value 1p
SYMBOL voltage -256 -224 R0
WINDOW 0 -63 1 Left 2
WINDOW 123 0 0 Left 0
WINDOW 39 0 0 Left 0
SYMATTR InstName V1
SYMATTR Value SINE(0 325 50)
SYMBOL voltage -512 -432 R0
WINDOW 0 -22 -7 Left 2
WINDOW 3 -28 122 Left 2
WINDOW 123 -22 21 Left 2
WINDOW 39 0 0 Left 0
SYMATTR InstName V3
SYMATTR Value PULSE(0 1 0.2 0.1 0.1 1)
SYMATTR Value2 AC 1
SYMBOL Symbaule -208 -336 R0
SYMATTR InstName X1
TEXT 152 0 Left 2 !.tran 2
TEXT 152 40 Left 2 !;ac dec 1000 0.1 1000k
TEXT -520 -168 Left 2 !.param G0 10n
TEXT -520 -128 Left 2 !.param G1 10n
TEXT -520 -88 Left 2 !.param R1 100k
TEXT -512 -48 Left 2 !.step param C2 100n 2u 100n
